examples/PFNET_Archives/tap_changer_trafo.raw
0,   100.00, 33, 0, 1, 60.00     / PSS(R)E 33 RAW created by rawd33  MON, AUG 05 2019  11:45
PSSE -> PFNET
TAP-CHANGER
     1,'BUS1        ', 400.0000,3,   1,   1,   1,1.00000,   0.0000,1.10000,0.90000,1.10000,0.90000
     2,'BUS2        ', 400.0000,1,   1,   1,   1,1.04493,  14.9029,1.10000,0.90000,1.10000,0.90000
     3,'BUS3        ',  20.0000,2,   1,   1,   1,1.10000,  14.9342,1.10000,0.90000,1.10000,0.90000
 0 /End of Bus data, Begin Load data
 0 /End of Load data, Begin Fixed shunt data
 0 /End of Fixed shunt data, Begin Generator data
     1,'1 ',  -644.488,   -21.243,  9999.000, -9999.000,1.00000,     0,   100.000, 0.00000E+0, 1.00000E+0, 0.00000E+0, 0.00000E+0,1.00000,1,  100.0,  9999.000, -9999.000,   1,1.0000
     3,'1 ',   660.000,    78.295,  9999.000,  -198.000,1.10000,     0,   100.000, 0.00000E+0, 1.00000E+0, 0.00000E+0, 0.00000E+0,1.00000,1,  100.0,   660.000,   396.000,   1,1.0000
 0 /End of Generator data, Begin Branch data
     1,     2,'1 ', 3.72400E-3, 4.15000E-2,   1.11000,    0.00,    0.00,    0.00,  0.00000,  0.00000,  0.00000,  0.00000,1,1, 200.00,   1,1.0000
 0 /End of Branch data, Begin Transformer data
     2,     3,     0,'1 ',1,1,1, 0.00000E+0, 0.00000E+0,2,'            ',1,   1,1.0000,   0,1.0000,   0,1.0000,   0,1.0000,'            '
 0.00000E+0, 1.00000E-4,   100.00
0.95000,   0.000,   0.000,     0.00,     0.00,     0.00, 2,      2, 1.10000, 0.90000,100.0000,-100.000,   5, 0, 0.00000, 0.00000,  0.000
1.00000,   0.000
 0 /End of Transformer data, Begin Area interchange data
 0 /End of Area interchange data, Begin Two-terminal dc line data
 0 /End of Two-terminal dc line data, Begin VSC dc line data
 0 /End of VSC dc line data, Begin Impedance correction table data
 0 /End of Impedance correction table data, Begin Multi-terminal dc line data
 0 /End of Multi-terminal dc line data, Begin Multi-section line data
 0 /End of Multi-section line data, Begin Zone data
 0 /End of Zone data, Begin Inter-area transfer data
 0 /End of Inter-area transfer data, Begin Owner data
 0 /End of Owner data, Begin FACTS device data
 0 /End of FACTS device data, Begin Switched shunt data
 0 /End of Switched shunt data, Begin GNE device data
 0 /End of GNE device data, Begin Induction machine data
 0 /End of Induction machine data
Q
